Circuit: * C:\Users\Nico\Desktop\Cirel\Practica 8\recortador polarizado.asc

.OP point found by inspection.
.step r=100
.step r=220
.step r=470
.step r=1000
.step r=2200
.step r=4700
.step r=10000
.step r=22000

Date: Sun Dec 02 21:00:50 2018
Total elapsed time: 0.162 seconds.

tnom = 27
temp = 27
method = modified trap
totiter = 1685
traniter = 1685
tranpoints = 555
accept = 352
rejected = 203
matrix size = 3
fillins = 0
solver = Normal
Matrix Compiler1: 50 bytes object code size  0.0/0.0/[0.0]
Matrix Compiler2:      15 opcodes  0.0/[0.0]/0.0

