Circuit: * C:\Users\Nico\Desktop\Cirel\Practica 8\rectificador de media ona.asc

.OP point found by inspection.
.step r=100
.step r=220
.step r=470
.step r=1000
.step r=2200
.step r=4700
.step r=10000
.step r=22000

Date: Sun Dec 02 21:05:27 2018
Total elapsed time: 0.212 seconds.

tnom = 27
temp = 27
method = modified trap
totiter = 709
traniter = 709
tranpoints = 255
accept = 172
rejected = 83
matrix size = 3
fillins = 0
solver = Normal
Matrix Compiler1: off  [0.0]/0.0/0.0
Matrix Compiler2: 175 bytes object code size  0.0/0.0/[0.0]

