Circuit: * C:\Users\Nico\Desktop\Cirel\Practica 6\Draft1.asc

Direct Newton iteration for .op point succeeded.

Date: Sun Nov 11 17:07:46 2018
Total elapsed time: 0.038 seconds.

tnom = 27
temp = 27
method = modified trap
totiter = 439
traniter = 428
tranpoints = 181
accept = 144
rejected = 37
matrix size = 11
fillins = 1
solver = Normal
Matrix Compiler1: 432 bytes object code size  0.1/0.0/[0.0]
Matrix Compiler2: 855 bytes object code size  0.1/0.1/[0.0]

