Circuit: * C:\Users\eps\Desktop\Practica 3\Draft1.asc

Direct Newton iteration for .op point succeeded.

Date: Mon Oct 15 10:53:26 2018
Total elapsed time: 12.887 seconds.

tnom = 27
temp = 27
method = trap
totiter = 3
traniter = 0
tranpoints = 0
accept = 0
rejected = 0
matrix size = 3
fillins = 0
solver = Normal
Matrix Compiler1: 50 bytes object code size
Matrix Compiler2: 175 bytes object code size
